
     RDKit          3D

 30 33  0  0  0  0  0  0  0  0999 V2000
    8.0459    0.2588   -0.9189 C   0  0  0  0  0  0  0  0  0  0  0  0
    6.8332    0.9460   -1.0054 O   0  0  0  0  0  0  0  0  0  0  0  0
    5.6613    0.3871   -0.5337 C   0  0  0  0  0  0  0  0  0  0  0  0
    5.6975   -0.8697    0.0309 C   0  0  0  0  0  0  0  0  0  0  0  0
    4.5200   -1.4171    0.4985 C   0  0  0  0  0  0  0  0  0  0  0  0
    3.3313   -0.7277    0.4059 C   0  0  0  0  0  0  0  0  0  0  0  0
    3.3107    0.5197   -0.1574 C   0  0  0  0  0  0  0  0  0  0  0  0
    4.4745    1.0768   -0.6269 C   0  0  0  0  0  0  0  0  0  0  0  0
    4.4280    2.3235   -1.1851 F   0  0  0  0  0  0  0  0  0  0  0  0
    1.9289    0.9803   -0.1088 C   0  0  0  0  0  0  0  0  0  0  0  0
    1.5022    2.0922   -0.5348 O   0  0  0  0  0  0  0  0  0  0  0  0
    1.1167   -0.0175    0.4967 N   0  0  0  0  0  0  0  0  0  0  0  0
   -0.3044    0.1037    0.7127 C   0  0  0  0  0  0  0  0  0  0  0  0
   -1.1244   -0.4085   -0.4488 C   0  0  1  0  0  0  0  0  0  0  0  0
   -2.5397   -0.1960   -0.0399 C   0  0  0  0  0  0  0  0  0  0  0  0
   -3.6916   -0.0364    0.2792 C   0  0  0  0  0  0  0  0  0  0  0  0
   -5.0592    0.1454    0.6773 C   0  0  0  0  0  0  0  0  0  0  0  0
   -5.9310   -0.9334    0.8475 C   0  0  0  0  0  0  0  0  0  0  0  0
   -7.2413   -0.7420    1.2303 C   0  0  0  0  0  0  0  0  0  0  0  0
   -7.6659    0.5492    1.4406 C   0  0  0  0  0  0  0  0  0  0  0  0
   -6.8245    1.6048    1.2773 N   0  0  0  0  0  0  0  0  0  0  0  0
   -5.5480    1.4237    0.9047 C   0  0  0  0  0  0  0  0  0  0  0  0
   -4.6880    2.6288    0.7465 C   0  0  0  0  0  0  0  0  0  0  0  0
   -0.9063    0.3355   -1.6498 N   0  0  0  0  0  0  0  0  0  0  0  0
   -0.5577   -0.5692   -2.6841 C   0  0  0  0  0  0  0  0  0  0  0  0
   -0.3015   -0.3093   -3.9057 O   0  0  0  0  0  0  0  0  0  0  0  0
   -0.5274   -1.8853   -2.1569 N   0  0  0  0  0  0  0  0  0  0  0  0
   -0.8596   -1.7937   -0.7874 C   0  0  0  0  0  0  0  0  0  0  0  0
   -0.9115   -2.7747   -0.0033 O   0  0  0  0  0  0  0  0  0  0  0  0
    1.9857   -1.1196    0.8332 C   0  0  0  0  0  0  0  0  0  0  0  0
  1  2  1  0
  2  3  1  0
  3  4  2  0
  4  5  1  0
  5  6  2  0
  6  7  1  0
  7  8  2  0
  8  9  1  0
  7 10  1  0
 10 11  2  0
 10 12  1  0
 12 13  1  0
 14 13  1  1
 14 15  1  0
 15 16  3  0
 16 17  1  0
 17 18  2  0
 18 19  1  0
 19 20  2  0
 20 21  1  0
 21 22  2  0
 22 23  1  0
 14 24  1  0
 24 25  1  0
 25 26  2  0
 25 27  1  0
 27 28  1  0
 28 29  2  0
 12 30  1  0
  8  3  1  0
 28 14  1  0
 30  6  1  0
 22 17  1  0
M  END
$$$$

     RDKit          3D

 37 41  0  0  0  0  0  0  0  0999 V2000
  -13.7074    4.2551   -0.2086 C   0  0  0  0  0  0  0  0  0  0  0  0
  -13.2736    3.6318    1.0908 C   0  0  0  0  0  0  0  0  0  0  0  0
  -12.0902    2.8352    0.9890 N   0  0  0  0  0  0  0  0  0  0  0  0
  -10.8930    3.5673    0.7158 C   0  0  0  0  0  0  0  0  0  0  0  0
   -9.7942    2.6413    0.1964 C   0  0  0  0  0  0  0  0  0  0  0  0
  -10.0929    1.3330    0.6216 N   0  0  0  0  0  0  0  0  0  0  0  0
   -9.3110    0.7090    1.5968 C   0  0  0  0  0  0  0  0  0  0  0  0
   -7.8706    0.5304    1.2647 C   0  0  0  0  0  0  0  0  0  0  0  0
   -7.4424   -0.5693    0.5473 C   0  0  0  0  0  0  0  0  0  0  0  0
   -6.1113   -0.7471    0.2346 C   0  0  0  0  0  0  0  0  0  0  0  0
   -5.1438    0.1587    0.6194 C   0  0  0  0  0  0  0  0  0  0  0  0
   -3.7500   -0.0395    0.2830 C   0  0  0  0  0  0  0  0  0  0  0  0
   -2.5816   -0.2043    0.0189 C   0  0  0  0  0  0  0  0  0  0  0  0
   -1.1567   -0.3879   -0.3221 C   0  0  2  0  0  0  0  0  0  0  0  0
   -0.2846    0.1269    0.8040 C   0  0  0  0  0  0  0  0  0  0  0  0
    1.1189   -0.0319    0.5131 N   0  0  0  0  0  0  0  0  0  0  0  0
    1.9658   -1.1524    0.8254 C   0  0  0  0  0  0  0  0  0  0  0  0
    3.2955   -0.8051    0.3131 C   0  0  0  0  0  0  0  0  0  0  0  0
    4.5219   -1.4525    0.2989 C   0  0  0  0  0  0  0  0  0  0  0  0
    5.6256   -0.8585   -0.2693 C   0  0  0  0  0  0  0  0  0  0  0  0
    5.5513    0.3926   -0.8405 C   0  0  0  0  0  0  0  0  0  0  0  0
    6.6699    0.9757   -1.4074 O   0  0  0  0  0  0  0  0  0  0  0  0
    6.5596    2.2721   -1.9910 C   0  0  0  0  0  0  0  0  0  0  0  0
    4.3451    1.0445   -0.8338 C   0  0  0  0  0  0  0  0  0  0  0  0
    3.2300    0.4427   -0.2591 C   0  0  0  0  0  0  0  0  0  0  0  0
    1.8791    0.9608   -0.1528 C   0  0  0  0  0  0  0  0  0  0  0  0
    1.4624    2.0924   -0.5790 O   0  0  0  0  0  0  0  0  0  0  0  0
   -0.9420    0.3174   -1.5489 N   0  0  0  0  0  0  0  0  0  0  0  0
   -0.2440   -0.5523   -2.4284 C   0  0  0  0  0  0  0  0  0  0  0  0
    0.2421   -0.2063   -3.5488 O   0  0  0  0  0  0  0  0  0  0  0  0
   -0.1767   -1.8463   -1.8670 N   0  0  0  0  0  0  0  0  0  0  0  0
   -0.8423   -1.7908   -0.6156 C   0  0  0  0  0  0  0  0  0  0  0  0
   -1.0974   -2.8019    0.0868 O   0  0  0  0  0  0  0  0  0  0  0  0
   -5.5659    1.2583    1.3359 C   0  0  0  0  0  0  0  0  0  0  0  0
   -6.9005    1.4325    1.6472 C   0  0  0  0  0  0  0  0  0  0  0  0
  -11.2504    0.7024    0.1277 C   0  0  0  0  0  0  0  0  0  0  0  0
  -12.3539    1.7669    0.0509 C   0  0  0  0  0  0  0  0  0  0  0  0
  1  2  1  0
  2  3  1  0
  3  4  1  0
  4  5  1  0
  5  6  1  0
  6  7  1  0
  7  8  1  0
  8  9  2  0
  9 10  1  0
 10 11  2  0
 11 12  1  0
 12 13  3  0
 14 13  1  1
 14 15  1  0
 15 16  1  0
 16 17  1  0
 17 18  1  0
 18 19  2  0
 19 20  1  0
 20 21  2  0
 21 22  1  0
 22 23  1  0
 21 24  1  0
 24 25  2  0
 25 26  1  0
 26 27  2  0
 14 28  1  0
 28 29  1  0
 29 30  2  0
 29 31  1  0
 31 32  1  0
 32 33  2  0
 11 34  1  0
 34 35  2  0
  6 36  1  0
 36 37  1  0
 37  3  1  0
 35  8  1  0
 32 14  1  0
 26 16  1  0
 25 18  1  0
M  END
$$$$

     RDKit          3D

 37 41  0  0  0  0  0  0  0  0999 V2000
    7.0486    2.3389   -0.5452 C   0  0  0  0  0  0  0  0  0  0  0  0
    7.0633    0.9637   -0.3007 O   0  0  0  0  0  0  0  0  0  0  0  0
    5.8421    0.2744   -0.2616 C   0  0  0  0  0  0  0  0  0  0  0  0
    5.8378   -0.9991    0.0217 C   0  0  0  0  0  0  0  0  0  0  0  0
    4.4926   -1.7411    0.1886 C   0  0  0  0  0  0  0  0  0  0  0  0
    3.4413   -0.8030    0.0153 C   0  0  0  0  0  0  0  0  0  0  0  0
    3.4809    0.4574   -0.2963 C   0  0  0  0  0  0  0  0  0  0  0  0
    4.7286    1.0273   -0.4569 C   0  0  0  0  0  0  0  0  0  0  0  0
    2.1500    1.1040   -0.1783 C   0  0  0  0  0  0  0  0  0  0  0  0
    1.8955    2.3060   -0.4493 O   0  0  0  0  0  0  0  0  0  0  0  0
    1.2411    0.1268    0.2894 N   0  0  0  0  0  0  0  0  0  0  0  0
   -0.2190    0.1950    0.5542 C   0  0  0  0  0  0  0  0  0  0  0  0
   -1.1366   -0.1441   -0.5063 C   0  0  1  0  0  0  0  0  0  0  0  0
   -2.5020   -0.2515   -0.1518 C   0  0  0  0  0  0  0  0  0  0  0  0
   -3.8018   -0.3327    0.1978 C   0  0  0  0  0  0  0  0  0  0  0  0
   -5.1813   -0.4075    0.5912 C   0  0  0  0  0  0  0  0  0  0  0  0
   -5.5213   -1.3488    1.4727 C   0  0  0  0  0  0  0  0  0  0  0  0
   -6.9768   -1.5074    1.6269 C   0  0  0  0  0  0  0  0  0  0  0  0
   -7.9176   -0.7407    0.8914 C   0  0  0  0  0  0  0  0  0  0  0  0
   -9.3477   -1.0713    0.8263 C   0  0  0  0  0  0  0  0  0  0  0  0
  -10.2279    0.0534    0.2686 C   0  0  0  0  0  0  0  0  0  0  0  0
   -9.9033   -1.7368    1.9222 N   0  0  0  0  0  0  0  0  0  0  0  0
  -10.2385   -3.0578    1.6993 C   0  0  0  0  0  0  0  0  0  0  0  0
  -10.6655   -3.8260    2.6417 O   0  0  0  0  0  0  0  0  0  0  0  0
   -9.9783   -3.3513    0.3449 N   0  0  0  0  0  0  0  0  0  0  0  0
   -9.4785   -2.1977   -0.2833 C   0  0  0  0  0  0  0  0  0  0  0  0
   -9.1792   -2.0242   -1.4338 O   0  0  0  0  0  0  0  0  0  0  0  0
   -7.3626    0.1481   -0.0130 C   0  0  0  0  0  0  0  0  0  0  0  0
   -8.1321    0.8552   -0.9050 F   0  0  0  0  0  0  0  0  0  0  0  0
   -6.0049    0.3340   -0.1673 C   0  0  0  0  0  0  0  0  0  0  0  0
   -1.0584    0.3483   -1.8448 N   0  0  0  0  0  0  0  0  0  0  0  0
   -1.3277   -0.7232   -2.7161 C   0  0  0  0  0  0  0  0  0  0  0  0
   -1.5887   -0.7501   -3.9953 O   0  0  0  0  0  0  0  0  0  0  0  0
   -1.2524   -2.0091   -2.0314 N   0  0  0  0  0  0  0  0  0  0  0  0
   -0.9559   -1.7542   -0.7198 C   0  0  0  0  0  0  0  0  0  0  0  0
   -0.6488   -2.4436    0.3142 O   0  0  0  0  0  0  0  0  0  0  0  0
    2.0568   -1.0181    0.6252 C   0  0  0  0  0  0  0  0  0  0  0  0
  1  2  1  0
  2  3  1  0
  3  4  2  0
  4  5  1  0
  5  6  2  0
  6  7  1  0
  7  8  2  0
  7  9  1  0
  9 10  2  0
  9 11  1  0
 11 12  1  0
 13 12  1  1
 13 14  1  0
 14 15  3  0
 15 16  1  0
 16 17  2  0
 17 18  1  0
 18 19  2  0
 19 20  1  0
 20 21  1  0
 20 22  1  0
 22 23  1  0
 23 24  2  0
 23 25  1  0
 25 26  1  0
 26 27  2  0
 19 28  1  0
 28 29  1  0
 28 30  2  0
 13 31  1  0
 31 32  1  0
 32 33  2  0
 32 34  1  0
 34 35  1  0
 35 36  2  0
 11 37  1  0
  8  3  1  0
 35 13  1  0
 37  6  1  0
 30 16  1  0
 26 20  1  0
M  END
$$$$

     RDKit          3D

 42 47  0  0  0  0  0  0  0  0999 V2000
    8.1725    0.3882   -0.5253 C   0  0  0  0  0  0  0  0  0  0  0  0
    6.9669    1.0603   -0.7956 O   0  0  0  0  0  0  0  0  0  0  0  0
    5.7774    0.4872   -0.4055 C   0  0  0  0  0  0  0  0  0  0  0  0
    5.7624   -0.7376    0.2444 C   0  0  0  0  0  0  0  0  0  0  0  0
    4.6019   -1.3447    0.6485 C   0  0  0  0  0  0  0  0  0  0  0  0
    3.3575   -0.7656    0.4328 C   0  0  0  0  0  0  0  0  0  0  0  0
    3.3604    0.4454   -0.2057 C   0  0  0  0  0  0  0  0  0  0  0  0
    4.5463    1.0676   -0.6225 C   0  0  0  0  0  0  0  0  0  0  0  0
    4.5351    2.2656   -1.2598 F   0  0  0  0  0  0  0  0  0  0  0  0
    1.9794    0.9154   -0.2621 C   0  0  0  0  0  0  0  0  0  0  0  0
    1.6185    2.0198   -0.8028 O   0  0  0  0  0  0  0  0  0  0  0  0
    1.1641   -0.0456    0.3696 N   0  0  0  0  0  0  0  0  0  0  0  0
   -0.2166    0.0855    0.6736 C   0  0  0  0  0  0  0  0  0  0  0  0
   -1.1022   -0.3945   -0.4431 C   0  0  1  0  0  0  0  0  0  0  0  0
   -2.5286   -0.2103    0.0050 C   0  0  0  0  0  0  0  0  0  0  0  0
   -3.6601   -0.0446    0.3613 C   0  0  0  0  0  0  0  0  0  0  0  0
   -5.0114    0.1777    0.7816 C   0  0  0  0  0  0  0  0  0  0  0  0
   -6.0645    0.2502   -0.0904 C   0  0  0  0  0  0  0  0  0  0  0  0
   -7.3714    0.4332    0.3726 C   0  0  0  0  0  0  0  0  0  0  0  0
   -7.6466    0.5471    1.7157 C   0  0  0  0  0  0  0  0  0  0  0  0
   -9.0026    0.7622    2.2419 C   0  0  0  0  0  0  0  0  0  0  0  0
   -9.7675    1.7665    1.7774 N   0  0  0  0  0  0  0  0  0  0  0  0
  -11.0091    2.0073    2.2293 C   0  0  0  0  0  0  0  0  0  0  0  0
  -11.8092    3.1149    1.7018 C   0  0  0  0  0  0  0  0  0  0  0  0
  -11.3142    3.9393    0.7037 C   0  0  0  0  0  0  0  0  0  0  0  0
  -12.0419    4.9954    0.1959 C   0  0  0  0  0  0  0  0  0  0  0  0
  -13.3090    5.2527    0.6884 C   0  0  0  0  0  0  0  0  0  0  0  0
  -13.7759    4.4550    1.6467 N   0  0  0  0  0  0  0  0  0  0  0  0
  -13.0678    3.4003    2.1647 C   0  0  0  0  0  0  0  0  0  0  0  0
  -11.5066    1.1794    3.2119 C   0  0  0  0  0  0  0  0  0  0  0  0
  -10.7672    0.1487    3.7117 C   0  0  0  0  0  0  0  0  0  0  0  0
   -9.4934   -0.0684    3.2207 C   0  0  0  0  0  0  0  0  0  0  0  0
   -8.7787   -1.1182    3.7373 O   0  0  0  0  0  0  0  0  0  0  0  0
   -6.5829    0.4770    2.6096 C   0  0  0  0  0  0  0  0  0  0  0  0
   -5.3203    0.2986    2.1464 C   0  0  0  0  0  0  0  0  0  0  0  0
   -0.9423    0.3329   -1.6680 N   0  0  0  0  0  0  0  0  0  0  0  0
   -0.7528   -0.5622   -2.7448 C   0  0  0  0  0  0  0  0  0  0  0  0
   -0.5999   -0.2707   -3.9840 O   0  0  0  0  0  0  0  0  0  0  0  0
   -0.7602   -1.8766   -2.2032 N   0  0  0  0  0  0  0  0  0  0  0  0
   -0.9546   -1.8101   -0.7818 C   0  0  0  0  0  0  0  0  0  0  0  0
   -0.9792   -2.8187   -0.0474 O   0  0  0  0  0  0  0  0  0  0  0  0
    1.9705   -1.1822    0.7001 C   0  0  0  0  0  0  0  0  0  0  0  0
  1  2  1  0
  2  3  1  0
  3  4  2  0
  4  5  1  0
  5  6  2  0
  6  7  1  0
  7  8  2  0
  8  9  1  0
  7 10  1  0
 10 11  2  0
 10 12  1  0
 12 13  1  0
 14 13  1  1
 14 15  1  0
 15 16  3  0
 16 17  1  0
 17 18  2  0
 18 19  1  0
 19 20  2  0
 20 21  1  0
 21 22  2  0
 22 23  1  0
 23 24  1  0
 24 25  2  0
 25 26  1  0
 26 27  2  0
 27 28  1  0
 28 29  2  0
 23 30  2  0
 30 31  1  0
 31 32  2  0
 32 33  1  0
 20 34  1  0
 34 35  2  0
 14 36  1  0
 36 37  1  0
 37 38  2  0
 37 39  1  0
 39 40  1  0
 40 41  2  0
 12 42  1  0
  8  3  1  0
 40 14  1  0
 42  6  1  0
 35 17  1  0
 32 21  1  0
 29 24  1  0
M  END
$$$$
